Version 4
SHEET 1 968 680
WIRE 128 112 96 112
WIRE 880 112 848 112
WIRE 128 128 128 112
WIRE 880 128 880 112
WIRE 16 208 16 112
WIRE 768 224 768 112
WIRE 768 224 720 224
WIRE -304 240 -384 240
WIRE -192 240 -224 240
WIRE -64 240 -192 240
WIRE 688 240 608 240
WIRE 160 256 64 256
WIRE 912 256 784 256
WIRE -384 272 -384 240
WIRE -64 272 -128 272
WIRE 688 272 624 272
WIRE 768 288 720 288
WIRE -128 336 -128 272
WIRE 160 336 -128 336
WIRE 624 336 624 272
WIRE 912 336 624 336
WIRE 16 368 16 304
WIRE 160 368 160 336
WIRE 768 368 768 288
WIRE 912 368 912 336
WIRE -192 544 -192 240
WIRE 608 544 608 240
WIRE 608 544 -192 544
FLAG 160 448 0
FLAG 128 128 0
FLAG 16 448 0
FLAG -384 272 0
FLAG 912 448 0
FLAG 880 128 0
FLAG 768 448 0
SYMBOL op_basic 64 240 R0
SYMATTR InstName X1
SYMBOL res 144 240 R0
SYMATTR InstName R1
SYMATTR Value 9k
SYMBOL res 144 352 R0
SYMATTR InstName R2
SYMATTR Value 1k
SYMBOL voltage 0 112 R270
WINDOW 0 32 56 VTop 2
WINDOW 3 -32 56 VBottom 2
WINDOW 123 0 0 Left 0
WINDOW 39 0 0 Left 0
SYMATTR InstName V1
SYMATTR Value 12
SYMBOL voltage 16 352 R0
WINDOW 123 0 0 Left 0
WINDOW 39 0 0 Left 0
SYMATTR InstName V2
SYMATTR Value -12
SYMBOL voltage -208 240 R90
WINDOW 0 -32 56 VBottom 2
WINDOW 3 32 56 VTop 2
WINDOW 123 60 56 VTop 2
WINDOW 39 0 0 Left 0
SYMATTR InstName V3
SYMATTR Value 0
SYMATTR Value2 AC 1
SYMBOL res 896 240 R0
SYMATTR InstName R3
SYMATTR Value 9k
SYMBOL res 896 352 R0
SYMATTR InstName R4
SYMATTR Value 1k
SYMBOL voltage 752 112 R270
WINDOW 0 32 56 VTop 2
WINDOW 3 -32 56 VBottom 2
WINDOW 123 0 0 Left 0
WINDOW 39 0 0 Left 0
SYMATTR InstName V4
SYMATTR Value 12
SYMBOL voltage 768 352 R0
WINDOW 123 0 0 Left 0
WINDOW 39 0 0 Left 0
SYMATTR InstName V5
SYMATTR Value -12
SYMBOL AutoGenerated\\UA741 720 256 R0
SYMATTR InstName U1
TEXT -404 472 Left 2 !.ac dec 100 1 1G
