Version 4
SHEET 1 880 680
WIRE 336 -16 224 -16
WIRE 224 16 224 -16
WIRE 336 16 336 -16
WIRE 144 128 80 128
WIRE 80 144 80 128
WIRE -80 192 -160 192
WIRE 16 192 -16 192
WIRE 144 192 144 160
WIRE 144 192 96 192
WIRE 416 192 224 192
WIRE -160 208 -160 192
WIRE 416 208 416 192
WIRE 272 256 272 144
WIRE 272 256 256 256
WIRE 144 272 144 192
WIRE 160 272 144 272
WIRE 256 272 256 256
WIRE 256 272 240 272
WIRE -160 304 -160 288
WIRE 144 352 144 272
WIRE 176 352 144 352
WIRE 256 352 256 272
WIRE 256 352 240 352
FLAG 80 144 0
FLAG 416 288 0
FLAG 336 16 0
FLAG -160 304 0
SYMBOL op_basic 272 128 R0
SYMATTR InstName X1
SYMBOL cap -16 176 R90
WINDOW 0 0 32 VBottom 2
WINDOW 3 32 32 VTop 2
SYMATTR InstName C1
SYMATTR Value 4n
SYMBOL res 112 176 R90
WINDOW 0 0 56 VBottom 2
WINDOW 3 32 56 VTop 2
SYMATTR InstName R1
SYMATTR Value 1.8Meg
SYMBOL res 256 256 R90
WINDOW 0 0 56 VBottom 2
WINDOW 3 32 56 VTop 2
SYMATTR InstName R2
SYMATTR Value 1.8Meg
SYMBOL cap 240 336 R90
WINDOW 0 0 32 VBottom 2
WINDOW 3 32 32 VTop 2
SYMATTR InstName C2
SYMATTR Value 4p
SYMBOL voltage 224 112 R180
WINDOW 0 24 96 Left 2
WINDOW 3 24 16 Left 2
WINDOW 123 0 0 Left 0
WINDOW 39 0 0 Left 0
SYMATTR InstName V1
SYMATTR Value 12
SYMBOL voltage 416 192 R0
WINDOW 123 0 0 Left 0
WINDOW 39 0 0 Left 0
SYMATTR InstName V2
SYMATTR Value -12
SYMBOL voltage -160 192 R0
WINDOW 123 24 124 Left 2
WINDOW 39 0 0 Left 0
SYMATTR InstName V3
SYMATTR Value ""
SYMATTR Value2 AC 1
TEXT -194 402 Left 2 !.ac dec 100 1 1G
