Version 4
SHEET 1 880 680
WIRE 128 160 16 160
WIRE 256 176 240 176
WIRE 352 176 256 176
WIRE 128 272 128 192
WIRE 352 272 352 176
WIRE 352 272 128 272
FLAG 384 128 0
FLAG 560 112 0
FLAG 464 288 0
FLAG 384 48 vdd
FLAG 560 32 -vdd
FLAG 464 208 v+
FLAG 16 160 v+
SYMBOL op_basic 256 160 R0
SYMATTR InstName X1
SYMBOL voltage 384 32 R0
WINDOW 123 0 0 Left 0
WINDOW 39 0 0 Left 0
SYMATTR InstName V1
SYMATTR Value 12
SYMBOL voltage 560 16 R0
WINDOW 123 0 0 Left 0
WINDOW 39 0 0 Left 0
SYMATTR InstName V2
SYMATTR Value -12
SYMBOL voltage 464 192 R0
WINDOW 123 0 0 Left 0
WINDOW 39 0 0 Left 0
SYMATTR InstName V3
SYMATTR Value SINE(0 5 20k)
TEXT 14 312 Left 2 !.tran 1ms
