Version 4
SHEET 1 880 680
WIRE 432 176 368 176
WIRE 176 192 112 192
WIRE 112 272 112 192
WIRE 432 272 432 176
WIRE 432 272 112 272
FLAG 432 96 0
FLAG 256 128 vdd
FLAG 256 224 -vdd
FLAG 176 160 vin
FLAG -160 64 vdd
FLAG -80 64 -vdd
FLAG 16 64 vin
FLAG -160 144 0
FLAG -80 144 0
FLAG 16 144 0
SYMBOL op_basic 304 160 R0
SYMATTR InstName X1
SYMBOL diode 304 192 R270
WINDOW 0 32 32 VTop 2
WINDOW 3 0 32 VBottom 2
SYMATTR InstName D1
SYMATTR Value 1N4148
SYMBOL res 416 80 R0
SYMATTR InstName R1
SYMATTR Value 1k
SYMBOL voltage -160 48 R0
WINDOW 123 0 0 Left 0
WINDOW 39 0 0 Left 0
SYMATTR InstName V1
SYMATTR Value 12
SYMBOL voltage -80 48 R0
WINDOW 123 0 0 Left 0
WINDOW 39 0 0 Left 0
SYMATTR InstName V2
SYMATTR Value -12
SYMBOL voltage 16 48 R0
WINDOW 123 0 0 Left 0
WINDOW 39 0 0 Left 0
SYMATTR InstName V3
SYMATTR Value SINE(0 1 1k)
TEXT -194 316 Left 2 !.tran 5m
